include "../model/ptm45nm.ptm"
ahdl_include "../model/veriloga/opamp.va"

simulator lang=spectre
global 0

parameters ttime=5000u

R_1_1 (Row1 Col1) resistor r=1000000.0
R_1_2 (Row1 Col2) resistor r=10000.0
R_1_3 (Row1 Col3) resistor r=1000000.0
R_1_4 (Row1 Col4) resistor r=10000.0
R_1_5 (Row1 Col5) resistor r=10000.0
R_1_6 (Row1 Col6) resistor r=1000000.0
R_1_7 (Row1 Col7) resistor r=10000.0
R_1_8 (Row1 Col8) resistor r=1000000.0
R_1_9 (Row1 Col9) resistor r=1000000.0
R_1_10 (Row1 Col10) resistor r=1000000.0
R_1_11 (Row1 Col11) resistor r=1000000.0
R_1_12 (Row1 Col12) resistor r=1000000.0
R_1_13 (Row1 Col13) resistor r=1000000.0
R_1_14 (Row1 Col14) resistor r=10000.0
R_1_15 (Row1 Col15) resistor r=10000.0
R_1_16 (Row1 Col16) resistor r=10000.0
R_1_17 (Row1 Col17) resistor r=1000000.0
R_1_18 (Row1 Col18) resistor r=10000.0
R_1_19 (Row1 Col19) resistor r=1000000.0
R_1_20 (Row1 Col20) resistor r=1000000.0
R_1_21 (Row1 Col21) resistor r=10000.0
R_1_22 (Row1 Col22) resistor r=1000000.0
R_1_23 (Row1 Col23) resistor r=10000.0
R_1_24 (Row1 Col24) resistor r=1000000.0
R_1_25 (Row1 Col25) resistor r=10000.0
R_1_26 (Row1 Col26) resistor r=10000.0
R_1_27 (Row1 Col27) resistor r=1000000.0
R_1_28 (Row1 Col28) resistor r=10000.0
R_1_29 (Row1 Col29) resistor r=1000000.0
R_1_30 (Row1 Col30) resistor r=1000000.0
R_1_31 (Row1 Col31) resistor r=1000000.0
R_1_32 (Row1 Col32) resistor r=1000000.0
R_2_1 (Row2 Col1) resistor r=10000.0
R_2_2 (Row2 Col2) resistor r=1000000.0
R_2_3 (Row2 Col3) resistor r=10000.0
R_2_4 (Row2 Col4) resistor r=10000.0
R_2_5 (Row2 Col5) resistor r=10000.0
R_2_6 (Row2 Col6) resistor r=1000000.0
R_2_7 (Row2 Col7) resistor r=1000000.0
R_2_8 (Row2 Col8) resistor r=10000.0
R_2_9 (Row2 Col9) resistor r=1000000.0
R_2_10 (Row2 Col10) resistor r=10000.0
R_2_11 (Row2 Col11) resistor r=10000.0
R_2_12 (Row2 Col12) resistor r=10000.0
R_2_13 (Row2 Col13) resistor r=10000.0
R_2_14 (Row2 Col14) resistor r=10000.0
R_2_15 (Row2 Col15) resistor r=10000.0
R_2_16 (Row2 Col16) resistor r=10000.0
R_2_17 (Row2 Col17) resistor r=1000000.0
R_2_18 (Row2 Col18) resistor r=1000000.0
R_2_19 (Row2 Col19) resistor r=1000000.0
R_2_20 (Row2 Col20) resistor r=10000.0
R_2_21 (Row2 Col21) resistor r=1000000.0
R_2_22 (Row2 Col22) resistor r=10000.0
R_2_23 (Row2 Col23) resistor r=10000.0
R_2_24 (Row2 Col24) resistor r=10000.0
R_2_25 (Row2 Col25) resistor r=10000.0
R_2_26 (Row2 Col26) resistor r=10000.0
R_2_27 (Row2 Col27) resistor r=10000.0
R_2_28 (Row2 Col28) resistor r=1000000.0
R_2_29 (Row2 Col29) resistor r=1000000.0
R_2_30 (Row2 Col30) resistor r=10000.0
R_2_31 (Row2 Col31) resistor r=10000.0
R_2_32 (Row2 Col32) resistor r=10000.0
R_3_1 (Row3 Col1) resistor r=1000000.0
R_3_2 (Row3 Col2) resistor r=10000.0
R_3_3 (Row3 Col3) resistor r=1000000.0
R_3_4 (Row3 Col4) resistor r=10000.0
R_3_5 (Row3 Col5) resistor r=10000.0
R_3_6 (Row3 Col6) resistor r=10000.0
R_3_7 (Row3 Col7) resistor r=10000.0
R_3_8 (Row3 Col8) resistor r=10000.0
R_3_9 (Row3 Col9) resistor r=10000.0
R_3_10 (Row3 Col10) resistor r=1000000.0
R_3_11 (Row3 Col11) resistor r=1000000.0
R_3_12 (Row3 Col12) resistor r=1000000.0
R_3_13 (Row3 Col13) resistor r=1000000.0
R_3_14 (Row3 Col14) resistor r=10000.0
R_3_15 (Row3 Col15) resistor r=10000.0
R_3_16 (Row3 Col16) resistor r=1000000.0
R_3_17 (Row3 Col17) resistor r=10000.0
R_3_18 (Row3 Col18) resistor r=10000.0
R_3_19 (Row3 Col19) resistor r=1000000.0
R_3_20 (Row3 Col20) resistor r=1000000.0
R_3_21 (Row3 Col21) resistor r=10000.0
R_3_22 (Row3 Col22) resistor r=10000.0
R_3_23 (Row3 Col23) resistor r=10000.0
R_3_24 (Row3 Col24) resistor r=1000000.0
R_3_25 (Row3 Col25) resistor r=10000.0
R_3_26 (Row3 Col26) resistor r=10000.0
R_3_27 (Row3 Col27) resistor r=1000000.0
R_3_28 (Row3 Col28) resistor r=10000.0
R_3_29 (Row3 Col29) resistor r=10000.0
R_3_30 (Row3 Col30) resistor r=1000000.0
R_3_31 (Row3 Col31) resistor r=10000.0
R_3_32 (Row3 Col32) resistor r=1000000.0
R_4_1 (Row4 Col1) resistor r=10000.0
R_4_2 (Row4 Col2) resistor r=10000.0
R_4_3 (Row4 Col3) resistor r=10000.0
R_4_4 (Row4 Col4) resistor r=1000000.0
R_4_5 (Row4 Col5) resistor r=10000.0
R_4_6 (Row4 Col6) resistor r=1000000.0
R_4_7 (Row4 Col7) resistor r=10000.0
R_4_8 (Row4 Col8) resistor r=10000.0
R_4_9 (Row4 Col9) resistor r=1000000.0
R_4_10 (Row4 Col10) resistor r=1000000.0
R_4_11 (Row4 Col11) resistor r=10000.0
R_4_12 (Row4 Col12) resistor r=10000.0
R_4_13 (Row4 Col13) resistor r=1000000.0
R_4_14 (Row4 Col14) resistor r=10000.0
R_4_15 (Row4 Col15) resistor r=10000.0
R_4_16 (Row4 Col16) resistor r=10000.0
R_4_17 (Row4 Col17) resistor r=10000.0
R_4_18 (Row4 Col18) resistor r=1000000.0
R_4_19 (Row4 Col19) resistor r=1000000.0
R_4_20 (Row4 Col20) resistor r=10000.0
R_4_21 (Row4 Col21) resistor r=10000.0
R_4_22 (Row4 Col22) resistor r=10000.0
R_4_23 (Row4 Col23) resistor r=10000.0
R_4_24 (Row4 Col24) resistor r=1000000.0
R_4_25 (Row4 Col25) resistor r=1000000.0
R_4_26 (Row4 Col26) resistor r=10000.0
R_4_27 (Row4 Col27) resistor r=10000.0
R_4_28 (Row4 Col28) resistor r=1000000.0
R_4_29 (Row4 Col29) resistor r=1000000.0
R_4_30 (Row4 Col30) resistor r=1000000.0
R_4_31 (Row4 Col31) resistor r=1000000.0
R_4_32 (Row4 Col32) resistor r=10000.0
R_5_1 (Row5 Col1) resistor r=10000.0
R_5_2 (Row5 Col2) resistor r=10000.0
R_5_3 (Row5 Col3) resistor r=10000.0
R_5_4 (Row5 Col4) resistor r=10000.0
R_5_5 (Row5 Col5) resistor r=1000000.0
R_5_6 (Row5 Col6) resistor r=1000000.0
R_5_7 (Row5 Col7) resistor r=10000.0
R_5_8 (Row5 Col8) resistor r=1000000.0
R_5_9 (Row5 Col9) resistor r=1000000.0
R_5_10 (Row5 Col10) resistor r=10000.0
R_5_11 (Row5 Col11) resistor r=10000.0
R_5_12 (Row5 Col12) resistor r=10000.0
R_5_13 (Row5 Col13) resistor r=10000.0
R_5_14 (Row5 Col14) resistor r=10000.0
R_5_15 (Row5 Col15) resistor r=1000000.0
R_5_16 (Row5 Col16) resistor r=1000000.0
R_5_17 (Row5 Col17) resistor r=10000.0
R_5_18 (Row5 Col18) resistor r=10000.0
R_5_19 (Row5 Col19) resistor r=10000.0
R_5_20 (Row5 Col20) resistor r=10000.0
R_5_21 (Row5 Col21) resistor r=10000.0
R_5_22 (Row5 Col22) resistor r=1000000.0
R_5_23 (Row5 Col23) resistor r=10000.0
R_5_24 (Row5 Col24) resistor r=1000000.0
R_5_25 (Row5 Col25) resistor r=10000.0
R_5_26 (Row5 Col26) resistor r=10000.0
R_5_27 (Row5 Col27) resistor r=1000000.0
R_5_28 (Row5 Col28) resistor r=1000000.0
R_5_29 (Row5 Col29) resistor r=10000.0
R_5_30 (Row5 Col30) resistor r=10000.0
R_5_31 (Row5 Col31) resistor r=10000.0
R_5_32 (Row5 Col32) resistor r=1000000.0
R_6_1 (Row6 Col1) resistor r=1000000.0
R_6_2 (Row6 Col2) resistor r=1000000.0
R_6_3 (Row6 Col3) resistor r=10000.0
R_6_4 (Row6 Col4) resistor r=1000000.0
R_6_5 (Row6 Col5) resistor r=1000000.0
R_6_6 (Row6 Col6) resistor r=1000000.0
R_6_7 (Row6 Col7) resistor r=1000000.0
R_6_8 (Row6 Col8) resistor r=1000000.0
R_6_9 (Row6 Col9) resistor r=1000000.0
R_6_10 (Row6 Col10) resistor r=10000.0
R_6_11 (Row6 Col11) resistor r=1000000.0
R_6_12 (Row6 Col12) resistor r=10000.0
R_6_13 (Row6 Col13) resistor r=1000000.0
R_6_14 (Row6 Col14) resistor r=10000.0
R_6_15 (Row6 Col15) resistor r=1000000.0
R_6_16 (Row6 Col16) resistor r=10000.0
R_6_17 (Row6 Col17) resistor r=10000.0
R_6_18 (Row6 Col18) resistor r=10000.0
R_6_19 (Row6 Col19) resistor r=1000000.0
R_6_20 (Row6 Col20) resistor r=1000000.0
R_6_21 (Row6 Col21) resistor r=1000000.0
R_6_22 (Row6 Col22) resistor r=10000.0
R_6_23 (Row6 Col23) resistor r=1000000.0
R_6_24 (Row6 Col24) resistor r=10000.0
R_6_25 (Row6 Col25) resistor r=1000000.0
R_6_26 (Row6 Col26) resistor r=1000000.0
R_6_27 (Row6 Col27) resistor r=10000.0
R_6_28 (Row6 Col28) resistor r=10000.0
R_6_29 (Row6 Col29) resistor r=10000.0
R_6_30 (Row6 Col30) resistor r=10000.0
R_6_31 (Row6 Col31) resistor r=10000.0
R_6_32 (Row6 Col32) resistor r=10000.0
R_7_1 (Row7 Col1) resistor r=10000.0
R_7_2 (Row7 Col2) resistor r=1000000.0
R_7_3 (Row7 Col3) resistor r=10000.0
R_7_4 (Row7 Col4) resistor r=10000.0
R_7_5 (Row7 Col5) resistor r=10000.0
R_7_6 (Row7 Col6) resistor r=1000000.0
R_7_7 (Row7 Col7) resistor r=1000000.0
R_7_8 (Row7 Col8) resistor r=10000.0
R_7_9 (Row7 Col9) resistor r=10000.0
R_7_10 (Row7 Col10) resistor r=10000.0
R_7_11 (Row7 Col11) resistor r=10000.0
R_7_12 (Row7 Col12) resistor r=1000000.0
R_7_13 (Row7 Col13) resistor r=10000.0
R_7_14 (Row7 Col14) resistor r=10000.0
R_7_15 (Row7 Col15) resistor r=1000000.0
R_7_16 (Row7 Col16) resistor r=1000000.0
R_7_17 (Row7 Col17) resistor r=10000.0
R_7_18 (Row7 Col18) resistor r=10000.0
R_7_19 (Row7 Col19) resistor r=10000.0
R_7_20 (Row7 Col20) resistor r=1000000.0
R_7_21 (Row7 Col21) resistor r=10000.0
R_7_22 (Row7 Col22) resistor r=1000000.0
R_7_23 (Row7 Col23) resistor r=10000.0
R_7_24 (Row7 Col24) resistor r=1000000.0
R_7_25 (Row7 Col25) resistor r=1000000.0
R_7_26 (Row7 Col26) resistor r=1000000.0
R_7_27 (Row7 Col27) resistor r=10000.0
R_7_28 (Row7 Col28) resistor r=1000000.0
R_7_29 (Row7 Col29) resistor r=1000000.0
R_7_30 (Row7 Col30) resistor r=1000000.0
R_7_31 (Row7 Col31) resistor r=1000000.0
R_7_32 (Row7 Col32) resistor r=10000.0
R_8_1 (Row8 Col1) resistor r=1000000.0
R_8_2 (Row8 Col2) resistor r=10000.0
R_8_3 (Row8 Col3) resistor r=10000.0
R_8_4 (Row8 Col4) resistor r=10000.0
R_8_5 (Row8 Col5) resistor r=1000000.0
R_8_6 (Row8 Col6) resistor r=1000000.0
R_8_7 (Row8 Col7) resistor r=10000.0
R_8_8 (Row8 Col8) resistor r=1000000.0
R_8_9 (Row8 Col9) resistor r=1000000.0
R_8_10 (Row8 Col10) resistor r=1000000.0
R_8_11 (Row8 Col11) resistor r=10000.0
R_8_12 (Row8 Col12) resistor r=1000000.0
R_8_13 (Row8 Col13) resistor r=10000.0
R_8_14 (Row8 Col14) resistor r=10000.0
R_8_15 (Row8 Col15) resistor r=10000.0
R_8_16 (Row8 Col16) resistor r=1000000.0
R_8_17 (Row8 Col17) resistor r=1000000.0
R_8_18 (Row8 Col18) resistor r=1000000.0
R_8_19 (Row8 Col19) resistor r=10000.0
R_8_20 (Row8 Col20) resistor r=1000000.0
R_8_21 (Row8 Col21) resistor r=10000.0
R_8_22 (Row8 Col22) resistor r=10000.0
R_8_23 (Row8 Col23) resistor r=1000000.0
R_8_24 (Row8 Col24) resistor r=10000.0
R_8_25 (Row8 Col25) resistor r=1000000.0
R_8_26 (Row8 Col26) resistor r=1000000.0
R_8_27 (Row8 Col27) resistor r=10000.0
R_8_28 (Row8 Col28) resistor r=10000.0
R_8_29 (Row8 Col29) resistor r=10000.0
R_8_30 (Row8 Col30) resistor r=1000000.0
R_8_31 (Row8 Col31) resistor r=10000.0
R_8_32 (Row8 Col32) resistor r=10000.0
R_9_1 (Row9 Col1) resistor r=1000000.0
R_9_2 (Row9 Col2) resistor r=1000000.0
R_9_3 (Row9 Col3) resistor r=10000.0
R_9_4 (Row9 Col4) resistor r=1000000.0
R_9_5 (Row9 Col5) resistor r=1000000.0
R_9_6 (Row9 Col6) resistor r=1000000.0
R_9_7 (Row9 Col7) resistor r=10000.0
R_9_8 (Row9 Col8) resistor r=1000000.0
R_9_9 (Row9 Col9) resistor r=1000000.0
R_9_10 (Row9 Col10) resistor r=10000.0
R_9_11 (Row9 Col11) resistor r=10000.0
R_9_12 (Row9 Col12) resistor r=1000000.0
R_9_13 (Row9 Col13) resistor r=10000.0
R_9_14 (Row9 Col14) resistor r=10000.0
R_9_15 (Row9 Col15) resistor r=10000.0
R_9_16 (Row9 Col16) resistor r=10000.0
R_9_17 (Row9 Col17) resistor r=10000.0
R_9_18 (Row9 Col18) resistor r=1000000.0
R_9_19 (Row9 Col19) resistor r=1000000.0
R_9_20 (Row9 Col20) resistor r=10000.0
R_9_21 (Row9 Col21) resistor r=1000000.0
R_9_22 (Row9 Col22) resistor r=1000000.0
R_9_23 (Row9 Col23) resistor r=10000.0
R_9_24 (Row9 Col24) resistor r=1000000.0
R_9_25 (Row9 Col25) resistor r=10000.0
R_9_26 (Row9 Col26) resistor r=10000.0
R_9_27 (Row9 Col27) resistor r=1000000.0
R_9_28 (Row9 Col28) resistor r=1000000.0
R_9_29 (Row9 Col29) resistor r=10000.0
R_9_30 (Row9 Col30) resistor r=10000.0
R_9_31 (Row9 Col31) resistor r=1000000.0
R_9_32 (Row9 Col32) resistor r=10000.0
R_10_1 (Row10 Col1) resistor r=1000000.0
R_10_2 (Row10 Col2) resistor r=10000.0
R_10_3 (Row10 Col3) resistor r=1000000.0
R_10_4 (Row10 Col4) resistor r=1000000.0
R_10_5 (Row10 Col5) resistor r=10000.0
R_10_6 (Row10 Col6) resistor r=10000.0
R_10_7 (Row10 Col7) resistor r=10000.0
R_10_8 (Row10 Col8) resistor r=1000000.0
R_10_9 (Row10 Col9) resistor r=10000.0
R_10_10 (Row10 Col10) resistor r=1000000.0
R_10_11 (Row10 Col11) resistor r=10000.0
R_10_12 (Row10 Col12) resistor r=1000000.0
R_10_13 (Row10 Col13) resistor r=1000000.0
R_10_14 (Row10 Col14) resistor r=1000000.0
R_10_15 (Row10 Col15) resistor r=10000.0
R_10_16 (Row10 Col16) resistor r=10000.0
R_10_17 (Row10 Col17) resistor r=10000.0
R_10_18 (Row10 Col18) resistor r=10000.0
R_10_19 (Row10 Col19) resistor r=10000.0
R_10_20 (Row10 Col20) resistor r=1000000.0
R_10_21 (Row10 Col21) resistor r=10000.0
R_10_22 (Row10 Col22) resistor r=10000.0
R_10_23 (Row10 Col23) resistor r=1000000.0
R_10_24 (Row10 Col24) resistor r=10000.0
R_10_25 (Row10 Col25) resistor r=1000000.0
R_10_26 (Row10 Col26) resistor r=10000.0
R_10_27 (Row10 Col27) resistor r=1000000.0
R_10_28 (Row10 Col28) resistor r=1000000.0
R_10_29 (Row10 Col29) resistor r=10000.0
R_10_30 (Row10 Col30) resistor r=10000.0
R_10_31 (Row10 Col31) resistor r=10000.0
R_10_32 (Row10 Col32) resistor r=10000.0
R_11_1 (Row11 Col1) resistor r=1000000.0
R_11_2 (Row11 Col2) resistor r=10000.0
R_11_3 (Row11 Col3) resistor r=1000000.0
R_11_4 (Row11 Col4) resistor r=10000.0
R_11_5 (Row11 Col5) resistor r=10000.0
R_11_6 (Row11 Col6) resistor r=1000000.0
R_11_7 (Row11 Col7) resistor r=10000.0
R_11_8 (Row11 Col8) resistor r=10000.0
R_11_9 (Row11 Col9) resistor r=10000.0
R_11_10 (Row11 Col10) resistor r=10000.0
R_11_11 (Row11 Col11) resistor r=1000000.0
R_11_12 (Row11 Col12) resistor r=1000000.0
R_11_13 (Row11 Col13) resistor r=10000.0
R_11_14 (Row11 Col14) resistor r=10000.0
R_11_15 (Row11 Col15) resistor r=1000000.0
R_11_16 (Row11 Col16) resistor r=1000000.0
R_11_17 (Row11 Col17) resistor r=1000000.0
R_11_18 (Row11 Col18) resistor r=10000.0
R_11_19 (Row11 Col19) resistor r=10000.0
R_11_20 (Row11 Col20) resistor r=1000000.0
R_11_21 (Row11 Col21) resistor r=1000000.0
R_11_22 (Row11 Col22) resistor r=1000000.0
R_11_23 (Row11 Col23) resistor r=10000.0
R_11_24 (Row11 Col24) resistor r=1000000.0
R_11_25 (Row11 Col25) resistor r=1000000.0
R_11_26 (Row11 Col26) resistor r=10000.0
R_11_27 (Row11 Col27) resistor r=1000000.0
R_11_28 (Row11 Col28) resistor r=10000.0
R_11_29 (Row11 Col29) resistor r=10000.0
R_11_30 (Row11 Col30) resistor r=1000000.0
R_11_31 (Row11 Col31) resistor r=10000.0
R_11_32 (Row11 Col32) resistor r=1000000.0
R_12_1 (Row12 Col1) resistor r=1000000.0
R_12_2 (Row12 Col2) resistor r=10000.0
R_12_3 (Row12 Col3) resistor r=1000000.0
R_12_4 (Row12 Col4) resistor r=10000.0
R_12_5 (Row12 Col5) resistor r=10000.0
R_12_6 (Row12 Col6) resistor r=10000.0
R_12_7 (Row12 Col7) resistor r=1000000.0
R_12_8 (Row12 Col8) resistor r=1000000.0
R_12_9 (Row12 Col9) resistor r=1000000.0
R_12_10 (Row12 Col10) resistor r=1000000.0
R_12_11 (Row12 Col11) resistor r=1000000.0
R_12_12 (Row12 Col12) resistor r=1000000.0
R_12_13 (Row12 Col13) resistor r=1000000.0
R_12_14 (Row12 Col14) resistor r=10000.0
R_12_15 (Row12 Col15) resistor r=1000000.0
R_12_16 (Row12 Col16) resistor r=1000000.0
R_12_17 (Row12 Col17) resistor r=1000000.0
R_12_18 (Row12 Col18) resistor r=1000000.0
R_12_19 (Row12 Col19) resistor r=10000.0
R_12_20 (Row12 Col20) resistor r=1000000.0
R_12_21 (Row12 Col21) resistor r=1000000.0
R_12_22 (Row12 Col22) resistor r=10000.0
R_12_23 (Row12 Col23) resistor r=10000.0
R_12_24 (Row12 Col24) resistor r=10000.0
R_12_25 (Row12 Col25) resistor r=1000000.0
R_12_26 (Row12 Col26) resistor r=1000000.0
R_12_27 (Row12 Col27) resistor r=1000000.0
R_12_28 (Row12 Col28) resistor r=10000.0
R_12_29 (Row12 Col29) resistor r=1000000.0
R_12_30 (Row12 Col30) resistor r=10000.0
R_12_31 (Row12 Col31) resistor r=1000000.0
R_12_32 (Row12 Col32) resistor r=10000.0
R_13_1 (Row13 Col1) resistor r=1000000.0
R_13_2 (Row13 Col2) resistor r=10000.0
R_13_3 (Row13 Col3) resistor r=1000000.0
R_13_4 (Row13 Col4) resistor r=1000000.0
R_13_5 (Row13 Col5) resistor r=10000.0
R_13_6 (Row13 Col6) resistor r=1000000.0
R_13_7 (Row13 Col7) resistor r=10000.0
R_13_8 (Row13 Col8) resistor r=10000.0
R_13_9 (Row13 Col9) resistor r=10000.0
R_13_10 (Row13 Col10) resistor r=1000000.0
R_13_11 (Row13 Col11) resistor r=10000.0
R_13_12 (Row13 Col12) resistor r=1000000.0
R_13_13 (Row13 Col13) resistor r=1000000.0
R_13_14 (Row13 Col14) resistor r=10000.0
R_13_15 (Row13 Col15) resistor r=1000000.0
R_13_16 (Row13 Col16) resistor r=10000.0
R_13_17 (Row13 Col17) resistor r=10000.0
R_13_18 (Row13 Col18) resistor r=10000.0
R_13_19 (Row13 Col19) resistor r=10000.0
R_13_20 (Row13 Col20) resistor r=10000.0
R_13_21 (Row13 Col21) resistor r=10000.0
R_13_22 (Row13 Col22) resistor r=1000000.0
R_13_23 (Row13 Col23) resistor r=10000.0
R_13_24 (Row13 Col24) resistor r=1000000.0
R_13_25 (Row13 Col25) resistor r=10000.0
R_13_26 (Row13 Col26) resistor r=1000000.0
R_13_27 (Row13 Col27) resistor r=10000.0
R_13_28 (Row13 Col28) resistor r=10000.0
R_13_29 (Row13 Col29) resistor r=10000.0
R_13_30 (Row13 Col30) resistor r=10000.0
R_13_31 (Row13 Col31) resistor r=10000.0
R_13_32 (Row13 Col32) resistor r=1000000.0
R_14_1 (Row14 Col1) resistor r=10000.0
R_14_2 (Row14 Col2) resistor r=10000.0
R_14_3 (Row14 Col3) resistor r=10000.0
R_14_4 (Row14 Col4) resistor r=10000.0
R_14_5 (Row14 Col5) resistor r=10000.0
R_14_6 (Row14 Col6) resistor r=10000.0
R_14_7 (Row14 Col7) resistor r=10000.0
R_14_8 (Row14 Col8) resistor r=10000.0
R_14_9 (Row14 Col9) resistor r=10000.0
R_14_10 (Row14 Col10) resistor r=1000000.0
R_14_11 (Row14 Col11) resistor r=10000.0
R_14_12 (Row14 Col12) resistor r=10000.0
R_14_13 (Row14 Col13) resistor r=10000.0
R_14_14 (Row14 Col14) resistor r=1000000.0
R_14_15 (Row14 Col15) resistor r=10000.0
R_14_16 (Row14 Col16) resistor r=10000.0
R_14_17 (Row14 Col17) resistor r=1000000.0
R_14_18 (Row14 Col18) resistor r=1000000.0
R_14_19 (Row14 Col19) resistor r=1000000.0
R_14_20 (Row14 Col20) resistor r=10000.0
R_14_21 (Row14 Col21) resistor r=10000.0
R_14_22 (Row14 Col22) resistor r=1000000.0
R_14_23 (Row14 Col23) resistor r=1000000.0
R_14_24 (Row14 Col24) resistor r=10000.0
R_14_25 (Row14 Col25) resistor r=1000000.0
R_14_26 (Row14 Col26) resistor r=1000000.0
R_14_27 (Row14 Col27) resistor r=1000000.0
R_14_28 (Row14 Col28) resistor r=1000000.0
R_14_29 (Row14 Col29) resistor r=1000000.0
R_14_30 (Row14 Col30) resistor r=10000.0
R_14_31 (Row14 Col31) resistor r=1000000.0
R_14_32 (Row14 Col32) resistor r=10000.0
R_15_1 (Row15 Col1) resistor r=10000.0
R_15_2 (Row15 Col2) resistor r=10000.0
R_15_3 (Row15 Col3) resistor r=10000.0
R_15_4 (Row15 Col4) resistor r=10000.0
R_15_5 (Row15 Col5) resistor r=1000000.0
R_15_6 (Row15 Col6) resistor r=1000000.0
R_15_7 (Row15 Col7) resistor r=1000000.0
R_15_8 (Row15 Col8) resistor r=10000.0
R_15_9 (Row15 Col9) resistor r=10000.0
R_15_10 (Row15 Col10) resistor r=10000.0
R_15_11 (Row15 Col11) resistor r=1000000.0
R_15_12 (Row15 Col12) resistor r=1000000.0
R_15_13 (Row15 Col13) resistor r=1000000.0
R_15_14 (Row15 Col14) resistor r=10000.0
R_15_15 (Row15 Col15) resistor r=1000000.0
R_15_16 (Row15 Col16) resistor r=10000.0
R_15_17 (Row15 Col17) resistor r=10000.0
R_15_18 (Row15 Col18) resistor r=10000.0
R_15_19 (Row15 Col19) resistor r=10000.0
R_15_20 (Row15 Col20) resistor r=10000.0
R_15_21 (Row15 Col21) resistor r=1000000.0
R_15_22 (Row15 Col22) resistor r=10000.0
R_15_23 (Row15 Col23) resistor r=10000.0
R_15_24 (Row15 Col24) resistor r=10000.0
R_15_25 (Row15 Col25) resistor r=10000.0
R_15_26 (Row15 Col26) resistor r=1000000.0
R_15_27 (Row15 Col27) resistor r=1000000.0
R_15_28 (Row15 Col28) resistor r=1000000.0
R_15_29 (Row15 Col29) resistor r=10000.0
R_15_30 (Row15 Col30) resistor r=10000.0
R_15_31 (Row15 Col31) resistor r=10000.0
R_15_32 (Row15 Col32) resistor r=1000000.0
R_16_1 (Row16 Col1) resistor r=10000.0
R_16_2 (Row16 Col2) resistor r=10000.0
R_16_3 (Row16 Col3) resistor r=1000000.0
R_16_4 (Row16 Col4) resistor r=10000.0
R_16_5 (Row16 Col5) resistor r=1000000.0
R_16_6 (Row16 Col6) resistor r=10000.0
R_16_7 (Row16 Col7) resistor r=1000000.0
R_16_8 (Row16 Col8) resistor r=1000000.0
R_16_9 (Row16 Col9) resistor r=10000.0
R_16_10 (Row16 Col10) resistor r=10000.0
R_16_11 (Row16 Col11) resistor r=1000000.0
R_16_12 (Row16 Col12) resistor r=1000000.0
R_16_13 (Row16 Col13) resistor r=10000.0
R_16_14 (Row16 Col14) resistor r=10000.0
R_16_15 (Row16 Col15) resistor r=10000.0
R_16_16 (Row16 Col16) resistor r=1000000.0
R_16_17 (Row16 Col17) resistor r=10000.0
R_16_18 (Row16 Col18) resistor r=10000.0
R_16_19 (Row16 Col19) resistor r=1000000.0
R_16_20 (Row16 Col20) resistor r=1000000.0
R_16_21 (Row16 Col21) resistor r=10000.0
R_16_22 (Row16 Col22) resistor r=1000000.0
R_16_23 (Row16 Col23) resistor r=10000.0
R_16_24 (Row16 Col24) resistor r=1000000.0
R_16_25 (Row16 Col25) resistor r=1000000.0
R_16_26 (Row16 Col26) resistor r=10000.0
R_16_27 (Row16 Col27) resistor r=1000000.0
R_16_28 (Row16 Col28) resistor r=1000000.0
R_16_29 (Row16 Col29) resistor r=10000.0
R_16_30 (Row16 Col30) resistor r=1000000.0
R_16_31 (Row16 Col31) resistor r=1000000.0
R_16_32 (Row16 Col32) resistor r=1000000.0
R_17_1 (Row17 Col1) resistor r=1000000.0
R_17_2 (Row17 Col2) resistor r=1000000.0
R_17_3 (Row17 Col3) resistor r=10000.0
R_17_4 (Row17 Col4) resistor r=10000.0
R_17_5 (Row17 Col5) resistor r=10000.0
R_17_6 (Row17 Col6) resistor r=10000.0
R_17_7 (Row17 Col7) resistor r=10000.0
R_17_8 (Row17 Col8) resistor r=1000000.0
R_17_9 (Row17 Col9) resistor r=10000.0
R_17_10 (Row17 Col10) resistor r=10000.0
R_17_11 (Row17 Col11) resistor r=1000000.0
R_17_12 (Row17 Col12) resistor r=1000000.0
R_17_13 (Row17 Col13) resistor r=10000.0
R_17_14 (Row17 Col14) resistor r=1000000.0
R_17_15 (Row17 Col15) resistor r=10000.0
R_17_16 (Row17 Col16) resistor r=10000.0
R_17_17 (Row17 Col17) resistor r=1000000.0
R_17_18 (Row17 Col18) resistor r=10000.0
R_17_19 (Row17 Col19) resistor r=10000.0
R_17_20 (Row17 Col20) resistor r=1000000.0
R_17_21 (Row17 Col21) resistor r=10000.0
R_17_22 (Row17 Col22) resistor r=1000000.0
R_17_23 (Row17 Col23) resistor r=1000000.0
R_17_24 (Row17 Col24) resistor r=10000.0
R_17_25 (Row17 Col25) resistor r=1000000.0
R_17_26 (Row17 Col26) resistor r=10000.0
R_17_27 (Row17 Col27) resistor r=1000000.0
R_17_28 (Row17 Col28) resistor r=10000.0
R_17_29 (Row17 Col29) resistor r=10000.0
R_17_30 (Row17 Col30) resistor r=1000000.0
R_17_31 (Row17 Col31) resistor r=10000.0
R_17_32 (Row17 Col32) resistor r=1000000.0
R_18_1 (Row18 Col1) resistor r=10000.0
R_18_2 (Row18 Col2) resistor r=1000000.0
R_18_3 (Row18 Col3) resistor r=10000.0
R_18_4 (Row18 Col4) resistor r=1000000.0
R_18_5 (Row18 Col5) resistor r=10000.0
R_18_6 (Row18 Col6) resistor r=10000.0
R_18_7 (Row18 Col7) resistor r=10000.0
R_18_8 (Row18 Col8) resistor r=1000000.0
R_18_9 (Row18 Col9) resistor r=1000000.0
R_18_10 (Row18 Col10) resistor r=10000.0
R_18_11 (Row18 Col11) resistor r=10000.0
R_18_12 (Row18 Col12) resistor r=1000000.0
R_18_13 (Row18 Col13) resistor r=10000.0
R_18_14 (Row18 Col14) resistor r=1000000.0
R_18_15 (Row18 Col15) resistor r=10000.0
R_18_16 (Row18 Col16) resistor r=10000.0
R_18_17 (Row18 Col17) resistor r=10000.0
R_18_18 (Row18 Col18) resistor r=1000000.0
R_18_19 (Row18 Col19) resistor r=1000000.0
R_18_20 (Row18 Col20) resistor r=10000.0
R_18_21 (Row18 Col21) resistor r=1000000.0
R_18_22 (Row18 Col22) resistor r=10000.0
R_18_23 (Row18 Col23) resistor r=1000000.0
R_18_24 (Row18 Col24) resistor r=1000000.0
R_18_25 (Row18 Col25) resistor r=10000.0
R_18_26 (Row18 Col26) resistor r=10000.0
R_18_27 (Row18 Col27) resistor r=1000000.0
R_18_28 (Row18 Col28) resistor r=10000.0
R_18_29 (Row18 Col29) resistor r=10000.0
R_18_30 (Row18 Col30) resistor r=10000.0
R_18_31 (Row18 Col31) resistor r=10000.0
R_18_32 (Row18 Col32) resistor r=10000.0
R_19_1 (Row19 Col1) resistor r=1000000.0
R_19_2 (Row19 Col2) resistor r=1000000.0
R_19_3 (Row19 Col3) resistor r=1000000.0
R_19_4 (Row19 Col4) resistor r=1000000.0
R_19_5 (Row19 Col5) resistor r=10000.0
R_19_6 (Row19 Col6) resistor r=1000000.0
R_19_7 (Row19 Col7) resistor r=10000.0
R_19_8 (Row19 Col8) resistor r=10000.0
R_19_9 (Row19 Col9) resistor r=1000000.0
R_19_10 (Row19 Col10) resistor r=10000.0
R_19_11 (Row19 Col11) resistor r=10000.0
R_19_12 (Row19 Col12) resistor r=10000.0
R_19_13 (Row19 Col13) resistor r=10000.0
R_19_14 (Row19 Col14) resistor r=1000000.0
R_19_15 (Row19 Col15) resistor r=10000.0
R_19_16 (Row19 Col16) resistor r=1000000.0
R_19_17 (Row19 Col17) resistor r=10000.0
R_19_18 (Row19 Col18) resistor r=1000000.0
R_19_19 (Row19 Col19) resistor r=1000000.0
R_19_20 (Row19 Col20) resistor r=1000000.0
R_19_21 (Row19 Col21) resistor r=1000000.0
R_19_22 (Row19 Col22) resistor r=10000.0
R_19_23 (Row19 Col23) resistor r=10000.0
R_19_24 (Row19 Col24) resistor r=1000000.0
R_19_25 (Row19 Col25) resistor r=1000000.0
R_19_26 (Row19 Col26) resistor r=1000000.0
R_19_27 (Row19 Col27) resistor r=10000.0
R_19_28 (Row19 Col28) resistor r=10000.0
R_19_29 (Row19 Col29) resistor r=10000.0
R_19_30 (Row19 Col30) resistor r=1000000.0
R_19_31 (Row19 Col31) resistor r=1000000.0
R_19_32 (Row19 Col32) resistor r=10000.0
R_20_1 (Row20 Col1) resistor r=1000000.0
R_20_2 (Row20 Col2) resistor r=10000.0
R_20_3 (Row20 Col3) resistor r=1000000.0
R_20_4 (Row20 Col4) resistor r=10000.0
R_20_5 (Row20 Col5) resistor r=10000.0
R_20_6 (Row20 Col6) resistor r=1000000.0
R_20_7 (Row20 Col7) resistor r=1000000.0
R_20_8 (Row20 Col8) resistor r=1000000.0
R_20_9 (Row20 Col9) resistor r=10000.0
R_20_10 (Row20 Col10) resistor r=1000000.0
R_20_11 (Row20 Col11) resistor r=1000000.0
R_20_12 (Row20 Col12) resistor r=1000000.0
R_20_13 (Row20 Col13) resistor r=10000.0
R_20_14 (Row20 Col14) resistor r=10000.0
R_20_15 (Row20 Col15) resistor r=10000.0
R_20_16 (Row20 Col16) resistor r=1000000.0
R_20_17 (Row20 Col17) resistor r=1000000.0
R_20_18 (Row20 Col18) resistor r=10000.0
R_20_19 (Row20 Col19) resistor r=1000000.0
R_20_20 (Row20 Col20) resistor r=1000000.0
R_20_21 (Row20 Col21) resistor r=10000.0
R_20_22 (Row20 Col22) resistor r=1000000.0
R_20_23 (Row20 Col23) resistor r=10000.0
R_20_24 (Row20 Col24) resistor r=1000000.0
R_20_25 (Row20 Col25) resistor r=1000000.0
R_20_26 (Row20 Col26) resistor r=10000.0
R_20_27 (Row20 Col27) resistor r=1000000.0
R_20_28 (Row20 Col28) resistor r=1000000.0
R_20_29 (Row20 Col29) resistor r=10000.0
R_20_30 (Row20 Col30) resistor r=1000000.0
R_20_31 (Row20 Col31) resistor r=10000.0
R_20_32 (Row20 Col32) resistor r=10000.0
R_21_1 (Row21 Col1) resistor r=10000.0
R_21_2 (Row21 Col2) resistor r=1000000.0
R_21_3 (Row21 Col3) resistor r=10000.0
R_21_4 (Row21 Col4) resistor r=10000.0
R_21_5 (Row21 Col5) resistor r=10000.0
R_21_6 (Row21 Col6) resistor r=1000000.0
R_21_7 (Row21 Col7) resistor r=10000.0
R_21_8 (Row21 Col8) resistor r=10000.0
R_21_9 (Row21 Col9) resistor r=1000000.0
R_21_10 (Row21 Col10) resistor r=10000.0
R_21_11 (Row21 Col11) resistor r=1000000.0
R_21_12 (Row21 Col12) resistor r=1000000.0
R_21_13 (Row21 Col13) resistor r=10000.0
R_21_14 (Row21 Col14) resistor r=10000.0
R_21_15 (Row21 Col15) resistor r=1000000.0
R_21_16 (Row21 Col16) resistor r=10000.0
R_21_17 (Row21 Col17) resistor r=10000.0
R_21_18 (Row21 Col18) resistor r=1000000.0
R_21_19 (Row21 Col19) resistor r=1000000.0
R_21_20 (Row21 Col20) resistor r=10000.0
R_21_21 (Row21 Col21) resistor r=1000000.0
R_21_22 (Row21 Col22) resistor r=10000.0
R_21_23 (Row21 Col23) resistor r=10000.0
R_21_24 (Row21 Col24) resistor r=1000000.0
R_21_25 (Row21 Col25) resistor r=1000000.0
R_21_26 (Row21 Col26) resistor r=10000.0
R_21_27 (Row21 Col27) resistor r=1000000.0
R_21_28 (Row21 Col28) resistor r=10000.0
R_21_29 (Row21 Col29) resistor r=1000000.0
R_21_30 (Row21 Col30) resistor r=1000000.0
R_21_31 (Row21 Col31) resistor r=10000.0
R_21_32 (Row21 Col32) resistor r=1000000.0
R_22_1 (Row22 Col1) resistor r=1000000.0
R_22_2 (Row22 Col2) resistor r=10000.0
R_22_3 (Row22 Col3) resistor r=10000.0
R_22_4 (Row22 Col4) resistor r=10000.0
R_22_5 (Row22 Col5) resistor r=1000000.0
R_22_6 (Row22 Col6) resistor r=10000.0
R_22_7 (Row22 Col7) resistor r=1000000.0
R_22_8 (Row22 Col8) resistor r=10000.0
R_22_9 (Row22 Col9) resistor r=1000000.0
R_22_10 (Row22 Col10) resistor r=10000.0
R_22_11 (Row22 Col11) resistor r=1000000.0
R_22_12 (Row22 Col12) resistor r=10000.0
R_22_13 (Row22 Col13) resistor r=1000000.0
R_22_14 (Row22 Col14) resistor r=1000000.0
R_22_15 (Row22 Col15) resistor r=10000.0
R_22_16 (Row22 Col16) resistor r=1000000.0
R_22_17 (Row22 Col17) resistor r=1000000.0
R_22_18 (Row22 Col18) resistor r=10000.0
R_22_19 (Row22 Col19) resistor r=10000.0
R_22_20 (Row22 Col20) resistor r=1000000.0
R_22_21 (Row22 Col21) resistor r=10000.0
R_22_22 (Row22 Col22) resistor r=1000000.0
R_22_23 (Row22 Col23) resistor r=1000000.0
R_22_24 (Row22 Col24) resistor r=10000.0
R_22_25 (Row22 Col25) resistor r=10000.0
R_22_26 (Row22 Col26) resistor r=1000000.0
R_22_27 (Row22 Col27) resistor r=10000.0
R_22_28 (Row22 Col28) resistor r=10000.0
R_22_29 (Row22 Col29) resistor r=1000000.0
R_22_30 (Row22 Col30) resistor r=1000000.0
R_22_31 (Row22 Col31) resistor r=1000000.0
R_22_32 (Row22 Col32) resistor r=1000000.0
R_23_1 (Row23 Col1) resistor r=10000.0
R_23_2 (Row23 Col2) resistor r=10000.0
R_23_3 (Row23 Col3) resistor r=10000.0
R_23_4 (Row23 Col4) resistor r=10000.0
R_23_5 (Row23 Col5) resistor r=10000.0
R_23_6 (Row23 Col6) resistor r=1000000.0
R_23_7 (Row23 Col7) resistor r=10000.0
R_23_8 (Row23 Col8) resistor r=1000000.0
R_23_9 (Row23 Col9) resistor r=10000.0
R_23_10 (Row23 Col10) resistor r=1000000.0
R_23_11 (Row23 Col11) resistor r=10000.0
R_23_12 (Row23 Col12) resistor r=10000.0
R_23_13 (Row23 Col13) resistor r=10000.0
R_23_14 (Row23 Col14) resistor r=1000000.0
R_23_15 (Row23 Col15) resistor r=10000.0
R_23_16 (Row23 Col16) resistor r=10000.0
R_23_17 (Row23 Col17) resistor r=1000000.0
R_23_18 (Row23 Col18) resistor r=1000000.0
R_23_19 (Row23 Col19) resistor r=10000.0
R_23_20 (Row23 Col20) resistor r=10000.0
R_23_21 (Row23 Col21) resistor r=10000.0
R_23_22 (Row23 Col22) resistor r=1000000.0
R_23_23 (Row23 Col23) resistor r=1000000.0
R_23_24 (Row23 Col24) resistor r=10000.0
R_23_25 (Row23 Col25) resistor r=1000000.0
R_23_26 (Row23 Col26) resistor r=10000.0
R_23_27 (Row23 Col27) resistor r=10000.0
R_23_28 (Row23 Col28) resistor r=1000000.0
R_23_29 (Row23 Col29) resistor r=1000000.0
R_23_30 (Row23 Col30) resistor r=10000.0
R_23_31 (Row23 Col31) resistor r=1000000.0
R_23_32 (Row23 Col32) resistor r=1000000.0